!Reaction Mechanism of iso-butanol in CHEMKIN format
!Title:   Experimental and kinetic modeling study of i-Butanol pyrolysis and combustion
!Authors: Jianghuai Cai, Wenhao Yuan, Lili Ye, Zhanjun Cheng, Yizun Wang, Lidong Zhang, Feng Zhang, Yuyang Li, Fei Qi*
!Address: National Synchrotron Radiation Laboratory, University of Science and Technology of China, Hefei, Anhui 230029, P. R. China
!Corresponding author: National Synchrotron Radiation Laboratory, University of Science and Technology of China, E-mail: fqi@ustc.edu.cn
!
!
!
!
!
ELEMENTS
O  H  C  N  AR  HE 
END
SPECIES
!
!**************************** C0 species *********************************************************
!
 AR        N2          HE         H          H2         O         OH        H2O      HO2   
 H2O2      O2 
!                                      
!**************************** C1 species ********************************************************* 
!                                                   
 C         CH          CH2        CH2*       CH3        CH4       CH*       CO        CO2
 CH2O      HCO         CH2OH      CH3O       CH3OH      HOCHO     HOCH2O    
! 
!**************************** C2 species *********************************************************
!                                                    
 C2H       C2H2        H2CC       C2H3       C2H4       C2H5      C2H6      C2O       HCCO     
 CH2CO     CH3CO       CH3CHO     C2H3OH     C2H5O      CH2OCH    CH2OCH2   CH2CHO    HCCOH    
 HCCOH     C2H4OH      HCCHOH     CH2COH     CH3CHOH    CH2COH  
!            
!**************************** C3 species *********************************************************
!                                                    
 C3H2      C3H3        pC3H4      aC3H4      cC3H4      aC3H5     CH3CCH2   CH3CHCH
 C3H6      nC3H7       iC3H7      C3H8       C2H3CHO 
 CC3H6OH   C3H5OH      C2H5CHO   C3H5O-enol2 C3H5OJ(13) C3H4O  C3H5O
!                                             
!**************************** C4 species *********************************************************
!                                                   
 C4H       C4H2        nC4H3      iC4H3      C4H4       nC4H5     iC4H5     C4H5-2    C4H6      
 C4H612    C4H6-2      SAXC4H7    C4H7       iC4H7      iC4H7-1   C4H7-2    CH3CCHCH3 
 C4H81     C4H82       iC4H8      pC4H9      sC4H9      iC4H9     tC4H9     C4H6-1 
 C4H10     iC4H10      H2C4O
!                                  
!**************************** C5 species *********************************************************
!                   
 C5H3      cC5H4       C5H4       lC5H5      C5H5       C5H6      lC5H7   C5H5O13    C5H5O24  
 C5H4O     C5H5OH      C5H4OH     C5H3O
! 
!**************************** C6 species *********************************************************                   
 C6H2      C6H3        l-C6H4     o-C6H4     nC6H5      A1-       fulvene   A1 
!
!********************* species involved in iso-butanol submechanism ******************************
!
iC4H9OH      iC4H8OH-1      iC4H8OH-2      iC4H8OH-3  iC4H9O
C3H6OH-2     iC3H6CHOH      iC3H5CH2OH     iC3H7CHO   CH3CHCHO  CH2CH2CHO
iC3H7CO      C2H3CO         tC3H6CHO       iC3H6CHO   iC3H5CHO   CH3CHOCH2
iC3H5CO      iC4H7O         iC3H6CO
!
!********************* species involved in sec-butanol submechanism ******************************
!
sC4H9OH     sC4H8OHm      sC4H8OH-1      sC4H8OH-2     sC4H8OH-3      sC4H9O 
sC2H4OH     iC3H6OH       C3H6OH-1       iC3H5OH       C4H7OH1-2      C4H7OH2-2
C4H7OH1-3   CH3CHCHOH     C2H5COCH3      CH3COCH3      C4H6OH1-32     C2H5OH     
C4H72-2     CH3COCH2      CH2CH2COCH3    CH3CHCOCH3    C2H5COCH2      CH3CHCO     
C4H7OH2-1   C2H5CO        C2H3COCH3      CH3COHCH3
! 
!********************** species involved in n-butanol submechanism *********************************
!
C4H9OH    C4H9O   C3H7CHO   AC4H8OH   BC4H8OH    CC4H8OH   DC4H8OH       
C4H7OH1-1   C4H7OH2-1     C4H7OH1-4    CH3CHCHCHO 
C4H7OJ(8) C4H7OJ(12) C4H7OJ(13) C4H7OJ(16)
!
!********************** species involved in t-butanol submechanism *********************************
!
tC4H9OH tC4H8OH tC4H9O tC4H8OH-O2
! 
!********************** aromatic species involved **************************************************
A1O A1OH  


!************* NOTE: corresponding molecular structure or nomenclature of some species **************
!C4H6        1,3-butadiene
!C4H612      1,2-butadiene
!C4H6-1      1-butyne
!C4H6-2      2-butyne
!
!sC4H9OH     CH3CH(OH)CH2CH3  sec-butanol
!sC4H8OHm   *CH2CH(OH)CH2CH3
!sC4H8OH-1   CH3*C(OH)CH2CH3
!sC4H8OH-2   CH3CH(OH)*CHCH3
!sC4H8OH-3   CH3CH(OH)CH2*CH2
!sC4H9O      CH3CH(O*)CH2CH3
!C2H5OH      ethanol
!sC2H4OH     CH3*CH(OH)
!C2H4OH      *CH2CH2OH
!iC3H6OH     CH3CH(OH)*CH2
!C3H6OH-1    *CH(OH)CH2CH3
!iC3H5OH     CH3C(OH)=CH2   (C3H5OH1-2)
!C4H7OH1-2   CH2=C(OH)CH2CH3
!C4H7OH1-3   CH3C(OH)CH=CH2
!C4H7OH2-1   CH2(OH)CH=CHCH3
!C4H7OH2-2   CH3C(OH)=CHCH3
!C4H6OH1-32  CH2=C*-CH(OH)CH3
!CH3CHCHOH   CH3CH=CH(OH)
!C2H5COCH3   CH3CH2COCH3   2-butanone
!CH3COCH3    acetone
!CH3COCH2    CH3COCH2*
!CH3CHCO     CH3CH=C=O  methyl ketene
!C4H72-2     CH3*C=CHCH3
!C4H7        CH2=CHCH2CH2* (C4H71-4)
!C4H7-2      CH2=C*CH2CH3  (C4H71-2)
!SAXC4H7     CH2=CHCH*CH3  (C4H71-3)
!C2H5CO      CH3CH2C=O
!
!!   in iso-butanol submechanism !!!!!!!!!!!!!!
!iC4H9OH     iso-butanol
!iC3H7       iso-propyl radical
!CH2OH       (*CH2)OH
!C3H6OH-2    CH3(CH*)CH2OH
!iC4H8       iso-butene
!iC4H8OH-1   (CH3)2CH(CH*)OH
!iC4H8OH-2   (CH3)2(C*)CH2OH
!iC4H8OH-3   CH3(CH2*)CHCH2OH
!CH3CHCHOH   CH3CH=CHOH propenol
!iC3H7CHO    (CH3)2CHCHO iso-butanal
!iC3H6CHOH   (CH3)2CH=CHOH iso-butenol
!iC3H5CH2OH  (CH3)CH2=CCH2OH
!C3H5OH      CH2=CHCH2OH  allyl alcohol
!CH3CHCHO    CH3(CH*)CHO
!CH2CH2CHO   (CH2*)CH2CHO
!iC3H7CO     (CH3)2CHCO
!tC3H6CHO    (CH3)2C*CHO
!iC3H5CHO    (CH3)CH2=CCHO iso-butenyl aldehyde
!iC3H5CO      (CH3)CH2=CC=O
!iC3H6CO     (CH3)2CCO  dimethylketene
!

THERMO ALL
   298.000  1000.000  5000.000
!#########################################USC MECH II###################################
N2                121286N   2               G  0300.00   5000.00  1000.00      1
 0.02926640E+02 0.14879768E-02-0.05684760E-05 0.10097038E-09-0.06753351E-13    2
-0.09227977E+04 0.05980528E+02 0.03298677E+02 0.14082404E-02-0.03963222E-04    3
 0.05641515E-07-0.02444854E-10-0.10208999E+04 0.03950372E+02                   4
AR                120186AR  1               G  0300.00   5000.00  1000.00      1
 0.02500000E+02 0.00000000E+00 0.00000000E+00 0.00000000E+00 0.00000000E+00    2
-0.07453750E+04 0.04366000E+02 0.02500000E+02 0.00000000E+00 0.00000000E+00    3
 0.00000000E+00 0.00000000E+00-0.07453750E+04 0.04366000E+02                   4
HE                L10/90HE  1    0    0    0G   200.000  6000.000 1000.        1
 2.50000000E+00 0.00000000E+00 0.00000000E+00 0.00000000E+00 0.00000000E+00    2
-7.45375000E+02 9.28723974E-01 2.50000000E+00 0.00000000E+00 0.00000000E+00    3
 0.00000000E+00 0.00000000E+00-7.45375000E+02 9.28723974E-01 0.00000000E+00    4
NE                L10/92NE  1    0    0    0G   200.000  6000.000   1000.00    1
 0.25000000E+01 0.             0.             0.             0.                2
-0.74537500E+03 0.33553227E+01 0.25000000E+01 0.             0.                3
 0.             0.            -0.74537498E+03 0.33553227E+01 0.00000000E+00    4
C(S)              P 4/83C   1    0    0    0C   200.000  5000.000     12.01100 1
 0.14556924e+01 0.17170638e-02-0.69758410e-06 0.13528316e-09-0.96764905e-14    2
-0.69512804e+03-0.85256842e+01-0.31087207e+00 0.44035369e-02 0.19039412e-05    3
-0.63854697e-08 0.29896425e-11-0.10865079e+03 0.11138295e+01                   4
O                 L 1/90O   1   00   00   00G   200.000  3500.000  1000.000    1
 2.56942078E+00-8.59741137E-05 4.19484589E-08-1.00177799E-11 1.22833691E-15    2
 2.92175791E+04 4.78433864E+00 3.16826710E+00-3.27931884E-03 6.64306396E-06    3
-6.12806624E-09 2.11265971E-12 2.91222592E+04 2.05193346E+00 6.72540300E+03    4
O2                TPIS89O   2   00   00   00G   200.000  3500.000  1000.000    1
 3.28253784E+00 1.48308754E-03-7.57966669E-07 2.09470555E-10-2.16717794E-14    2
-1.08845772E+03 5.45323129E+00 3.78245636E+00-2.99673416E-03 9.84730201E-06    3
-9.68129509E-09 3.24372837E-12-1.06394356E+03 3.65767573E+00 8.68010400E+03    4
H                 L 7/88H   1   00   00   00G   200.000  3500.000   1000.00    1
 2.50000001E+00-2.30842973E-11 1.61561948E-14-4.73515235E-18 4.98197357E-22    2
 2.54736599E+04-4.46682914E-01 2.50000000E+00 7.05332819E-13-1.99591964E-15    3
 2.30081632E-18-9.27732332E-22 2.54736599E+04-4.46682853E-01 6.19742800E+03    4
H2                TPIS78H   2   00   00   00G   200.000  3500.000   1000.00    1
 3.33727920E+00-4.94024731E-05 4.99456778E-07-1.79566394E-10 2.00255376E-14    2
-9.50158922E+02-3.20502331E+00 2.34433112E+00 7.98052075E-03-1.94781510E-05    3
 2.01572094E-08-7.37611761E-12-9.17935173E+02 6.83010238E-01 8.46810200E+03    4
OH                S 9/01O   1H   1    0    0G   200.000  6000.000   1000.00    1
 2.86472886E+00 1.05650448E-03-2.59082758E-07 3.05218674E-11-1.33195876E-15    2
 3.71885774E+03 5.70164073E+00 4.12530561E+00-3.22544939E-03 6.52764691E-06    3
-5.79853643E-09 2.06237379E-12 3.38153812E+03-6.90432960E-01 4.51532273E+03    4
!OH"OLD"           RUS 78O   1H   1   00   00G   200.000  3500.000  1000.000    1
! 3.09288767E+00 5.48429716E-04 1.26505228E-07-8.79461556E-11 1.17412376E-14    2
! 3.85865700E+03 4.47669610E+00 3.99201543E+00-2.40131752E-03 4.61793841E-06    3
!-3.88113333E-09 1.36411470E-12 3.61508056E+03-1.03925458E-01 8.81310600E+03    4
H2O               L 8/89H   2O   1   00   00G   200.000  3500.000  1000.000    1
 3.03399249E+00 2.17691804E-03-1.64072518E-07-9.70419870E-11 1.68200992E-14    2
-3.00042971E+04 4.96677010E+00 4.19864056E+00-2.03643410E-03 6.52040211E-06    3
-5.48797062E-09 1.77197817E-12-3.02937267E+04-8.49032208E-01 9.90409200E+03    4
HO2               L 5/89H   1O   2   00   00G   200.000  3500.000  1000.000    1
 4.01721090E+00 2.23982013E-03-6.33658150E-07 1.14246370E-10-1.07908535E-14    2
 1.11856713E+02 3.78510215E+00 4.30179801E+00-4.74912051E-03 2.11582891E-05    3
-2.42763894E-08 9.29225124E-12 2.94808040E+02 3.71666245E+00 1.00021620E+04    4
H2O2              L 7/88H   2O   2   00   00G   200.000  3500.000  1000.000    1
 4.16500285E+00 4.90831694E-03-1.90139225E-06 3.71185986E-10-2.87908305E-14    2
-1.78617877E+04 2.91615662E+00 4.27611269E+00-5.42822417E-04 1.67335701E-05    3
-2.15770813E-08 8.62454363E-12-1.77025821E+04 3.43505074E+00 1.11588350E+04    4
C                 L11/88C   1   00   00   00G   200.000  3500.000  1000.000    1
 2.49266888E+00 4.79889284E-05-7.24335020E-08 3.74291029E-11-4.87277893E-15    2
 8.54512953E+04 4.80150373E+00 2.55423955E+00-3.21537724E-04 7.33792245E-07    3
-7.32234889E-10 2.66521446E-13 8.54438832E+04 4.53130848E+00 6.53589500E+03    4
CH                TPIS79C   1H   1   00   00G   200.000  3500.000  1000.000    1
 2.87846473E+00 9.70913681E-04 1.44445655E-07-1.30687849E-10 1.76079383E-14    2
 7.10124364E+04 5.48497999E+00 3.48981665E+00 3.23835541E-04-1.68899065E-06    3
 3.16217327E-09-1.40609067E-12 7.07972934E+04 2.08401108E+00 8.62500000E+03    4
CH*               TPIS79C   1H   1   00   00G   200.000  3500.000  1000.000    1
 2.78220752E+00 1.47246754E-03-4.63436227E-07 7.32736021E-11-4.19705404E-15    2
 1.04547060E+05 5.17421018E+00 3.47250101E+00 4.26443626E-04-1.95181794E-06    3
 3.51755043E-09-1.60436174E-12 1.04334869E+05 1.44799533E+00 1.05378099E+05    4
CH2               L S/93C   1H   2   00   00G   200.000  3500.000  1000.000    1
 2.87410113E+00 3.65639292E-03-1.40894597E-06 2.60179549E-10-1.87727567E-14    2
 4.62636040E+04 6.17119324E+00 3.76267867E+00 9.68872143E-04 2.79489841E-06    3
-3.85091153E-09 1.68741719E-12 4.60040401E+04 1.56253185E+00 1.00274170E+04    4
CH2*              L S/93C   1H   2   00   00G   200.000  3500.000  1000.000    1
 2.29203842E+00 4.65588637E-03-2.01191947E-06 4.17906000E-10-3.39716365E-14    2
 5.09259997E+04 8.62650169E+00 4.19860411E+00-2.36661419E-03 8.23296220E-06    3
-6.68815981E-09 1.94314737E-12 5.04968163E+04-7.69118967E-01 9.93967200E+03    4

CH3               IU0702C  1.H  3.   0.   0.G   200.000  6000.000 1000.        1 !F.L.Dryer C1 model
 0.29781206E+01 0.57978520E-02-0.19755800E-05 0.30729790E-09-0.17917416E-13    2
 0.16509513E+05 0.47224799E+01 0.36571797E+01 0.21265979E-02 0.54583883E-05    3
-0.66181003E-08 0.24657074E-11 0.16422716E+05 0.16735354E+01 0.17643935E+05    4

!CH3               L11/89C   1H   3   00   00G   200.000  3500.000  1000.000    1
! 2.28571772E+00 7.23990037E-03-2.98714348E-06 5.95684644E-10-4.67154394E-14    2
! 1.67755843E+04 8.48007179E+00 3.67359040E+00 2.01095175E-03 5.73021856E-06    3
!-6.87117425E-09 2.54385734E-12 1.64449988E+04 1.60456433E+00 1.03663400E+04    4

CH4               L 8/88C   1H   4   00   00G   200.000  3500.000  1000.000    1
 7.48514950E-02 1.33909467E-02-5.73285809E-06 1.22292535E-09-1.01815230E-13    2
-9.46834459E+03 1.84373180E+01 5.14987613E+00-1.36709788E-02 4.91800599E-05    3
-4.84743026E-08 1.66693956E-11-1.02466476E+04-4.64130376E+00 1.00161980E+04    4
CO                TPIS79C   1O   1   00   00G   200.000  3500.000  1000.000    1
 2.71518561E+00 2.06252743E-03-9.98825771E-07 2.30053008E-10-2.03647716E-14    2
-1.41518724E+04 7.81868772E+00 3.57953347E+00-6.10353680E-04 1.01681433E-06    3
 9.07005884E-10-9.04424499E-13-1.43440860E+04 3.50840928E+00 8.67100000E+03    4
CO2               L 7/88C   1O   2   00   00G   200.000  3500.000  1000.000    1
 3.85746029E+00 4.41437026E-03-2.21481404E-06 5.23490188E-10-4.72084164E-14    2
-4.87591660E+04 2.27163806E+00 2.35677352E+00 8.98459677E-03-7.12356269E-06    3
 2.45919022E-09-1.43699548E-13-4.83719697E+04 9.90105222E+00 9.36546900E+03    4
HCO               L12/89H   1C   1O   1   00G   200.000  3500.000  1000.000    1
 2.77217438E+00 4.95695526E-03-2.48445613E-06 5.89161778E-10-5.33508711E-14    2
 4.01191815E+03 9.79834492E+00 4.22118584E+00-3.24392532E-03 1.37799446E-05    3
-1.33144093E-08 4.33768865E-12 3.83956496E+03 3.39437243E+00 9.98945000E+03    4
CH2O              L 8/88H   2C   1O   1   00G   200.000  3500.000  1000.000    1
 1.76069008E+00 9.20000082E-03-4.42258813E-06 1.00641212E-09-8.83855640E-14    2
-1.39958323E+04 1.36563230E+01 4.79372315E+00-9.90833369E-03 3.73220008E-05    3
-3.79285261E-08 1.31772652E-11-1.43089567E+04 6.02812900E-01 1.00197170E+04    4
-3.79285237E-08 1.31772641E-11-1.43227879E+04 6.02798058E-01-1.30729291E+04    4
!CH2OH"OLD"        GUNL93C   1H   3O   1   00G   200.000  3500.000 1000.0       1
! 3.69266569E+00 8.64576797E-03-3.75101120E-06 7.87234636E-10-6.48554201E-14    2
!-3.24250627E+03 5.81043215E+00 3.86388918E+00 5.59672304E-03 5.93271791E-06    3
!-1.04532012E-08 4.36967278E-12-3.19391367E+03 5.47302243E+00 1.18339080E+04    4

CH2OH              JH/96C   1H   3O   1N   0G   250.000  3000.000  750.00      1 !F.L.Dryer C1 model
 0.37469103E+01 0.88646121E-02-0.42580722E-05 0.10088040E-08-0.94501561E-13    2
-0.36664824E+04 0.54281095E+01 0.46119792E+01-0.31203760E-02 0.35531680E-04    3
-0.49379398E-07 0.22027247E-10-0.36040734E+04 0.28351399E+01                   4

!CH2OH             IU2/03C   1H   3O   1   00G   200.000  6000.00               1
! 5.09314370E+00 5.94761260E-03-2.06497460E-06 3.23008173E-10-1.88125902E-14    2
!-4.03409640E+03-1.84691493E+00 4.47834367E+00-1.35070310E-03 2.78484980E-05    3
!-3.64869060E-08 1.47907450E-11-3.50072890E+03 3.30913500E+00-2.04462770E+03    4

!CH3O"OLD"         121686C   1H   3O   1     G  0300.00   3000.00  1000.00      1
! 0.03770799E+02 0.07871497E-01-0.02656384E-04 0.03944431E-08-0.02112616E-12    2
! 0.12783252E+03 0.02929575E+02 0.02106204E+02 0.07216595E-01 0.05338472E-04    3
!-0.07377636E-07 0.02075610E-10 0.09786011E+04 0.13152177E+02                   4
CH3O              IU1/03C   1H   3O   1     G   200.000  6000.00               1
 4.75779238E+00 7.44142474E-03-2.69705176E-06 4.38090504E-10-2.63537098E-14    2
 3.78111940E+02-1.96680028E+00 3.71180502E+00-2.80463306E-03 3.76550971E-05    3
-4.73072089E-08 1.86588420E-11 1.29569760E+03 6.57240864E+00 2.52571660E+03    4
CH3OH             L 8/88C   1H   4O   1   00G   200.000  3500.000  1000.000    1
 1.78970791E+00 1.40938292E-02-6.36500835E-06 1.38171085E-09-1.17060220E-13    2
-2.53748747E+04 1.45023623E+01 5.71539582E+00-1.52309129E-02 6.52441155E-05    3
-7.10806889E-08 2.61352698E-11-2.56427656E+04-1.50409823E+00 1.14352770E+04    4
C2H               L 1/91C   2H   1   00   00G   200.000  3500.000  1000.000    1
 3.16780652E+00 4.75221902E-03-1.83787077E-06 3.04190252E-10-1.77232770E-14    2
 6.71210650E+04 6.63589475E+00 2.88965733E+00 1.34099611E-02-2.84769501E-05    3
 2.94791045E-08-1.09331511E-11 6.68393932E+04 6.22296438E+00 1.04544720E+04    4
C2H2              L 1/91C   2H   2   00   00G   200.000  3500.000  1000.000    1
 4.14756964E+00 5.96166664E-03-2.37294852E-06 4.67412171E-10-3.61235213E-14    2
 2.59359992E+04-1.23028121E+00 8.08681094E-01 2.33615629E-02-3.55171815E-05    3
 2.80152437E-08-8.50072974E-12 2.64289807E+04 1.39397051E+01 1.00058390E+04    4
H2CC              L12/89H   2C   2    0    0G   200.000  6000.000  1000.000    1
 0.42780340E+01 0.47562804E-02-0.16301009E-05 0.25462806E-09-0.14886379E-13    2
 0.48316688E+05 0.64023701E+00 0.32815483E+01 0.69764791E-02-0.23855244E-05    3
-0.12104432E-08 0.98189545E-12 0.48621794E+05 0.59203910E+01 0.49887266E+05    4
C2H3              L 2/92C   2H   3   00   00G   200.000  3500.000  1000.000    1
 3.01672400E+00 1.03302292E-02-4.68082349E-06 1.01763288E-09-8.62607041E-14    2
 3.46128739E+04 7.78732378E+00 3.21246645E+00 1.51479162E-03 2.59209412E-05    3
-3.57657847E-08 1.47150873E-11 3.48598468E+04 8.51054025E+00 1.05750490E+04    4
C2H4              L 1/91C   2H   4   00   00G   200.000  3500.000  1000.000    1
 2.03611116E+00 1.46454151E-02-6.71077915E-06 1.47222923E-09-1.25706061E-13    2
 4.93988614E+03 1.03053693E+01 3.95920148E+00-7.57052247E-03 5.70990292E-05    3
-6.91588753E-08 2.69884373E-11 5.08977593E+03 4.09733096E+00 1.05186890E+04    4
C2H5              L12/92C   2H   5   00   00G   200.000  3500.000  1000.000    1
 1.95465642E+00 1.73972722E-02-7.98206668E-06 1.75217689E-09-1.49641576E-13    2
 1.28575200E+04 1.34624343E+01 4.30646568E+00-4.18658892E-03 4.97142807E-05    3
-5.99126606E-08 2.30509004E-11 1.28416265E+04 4.70720924E+00 1.21852440E+04    4
C2H6              L 8/88C   2H   6   00   00G   200.000  3500.000  1000.000    1
 1.07188150E+00 2.16852677E-02-1.00256067E-05 2.21412001E-09-1.90002890E-13    2
-1.14263932E+04 1.51156107E+01 4.29142492E+00-5.50154270E-03 5.99438288E-05    3
-7.08466285E-08 2.68685771E-11-1.15222055E+04 2.66682316E+00 1.18915940E+04    4
!CH2CO"OLD"        L 5/90C   2H   2O   1   00G   200.000  3500.000  1000.000    1
! 4.51129732E+00 9.00359745E-03-4.16939635E-06 9.23345882E-10-7.94838201E-14    2
!-7.55105311E+03 6.32247205E-01 2.13583630E+00 1.81188721E-02-1.73947474E-05    3
! 9.34397568E-09-2.01457615E-12-7.04291804E+03 1.22156480E+01 1.17977430E+04    4
CH2CO             D05/90C   2H   2O   1   00G   200.000  3500.000  1000.000    1
 4.51129732E+00 9.00359745E-03-4.16939635E-06 9.23345882E-10-7.94838201E-14    2
-7.77850000E+03 6.32247205E-01 2.13583630E+00 1.81188721E-02-1.73947474E-05    3
 9.34397568E-09-2.01457615E-12-7.27000000E+03 1.22156480E+01 1.17977430E+04    4
!CH2CHO"OLD"       T04/83O   1H   3C   2    0G   300.000  5000.000              1
! 0.59756699E+01 0.81305914E-02-0.27436245E-05 0.40703041E-09-0.21760171E-13    2
! 0.49032178E+03-0.50320879E+01 0.34090624E+01 0.10738574E-01 0.18914925E-05    3
!-0.71585831E-08 0.28673851E-11 0.15214766E+04 0.95714535E+01 0.30474436E+04    4
CH2CHO            D05/83O   1H   3C   2    0G   300.000  5000.000              1
 0.59756699E+01 0.81305914E-02-0.27436245E-05 0.40703041E-09-0.21760171E-13    2
-0.96950000E+03-0.50320879E+01 0.34090624E+01 0.10738574E-01 0.18914925E-05    3
-0.71585831E-08 0.28673851E-11 0.62000000E+02 0.95714535E+01 0.30474436E+04    4
!CH2OCH"OLD"       T 9/92C   2H   3O   1    0G   298.150  3000.000  1000.0      1
! 0.48131470E+00 0.20711914E-01-0.12693155E-04 0.34579642E-08-0.35399703E-12    2
! 0.15648642E+05 0.34629876E+02 0.10854772E+01 0.12845259E-01 0.24138660E-05    3
!-0.44642672E-08-0.29381916E-12 0.15910655E+05 0.33395312E+02 0.16817588E+05    4
CH2OCH            A12/04C   2H   3O   1    0G   298.150  3000.000   500.0      1
 0.44994054E+01 0.11552625E-01-0.48144129E-05 0.89234919E-09-0.56870585E-13    2
 0.17473963E+05 0.33925515E+00-0.38396084E+00 0.23879038E-01-0.12467587E-04    3
-0.17686411E-08 0.28142438E-11 0.18836203E+05 0.25741745E+02                   4
CH2OCH2           T 6/92C   2H   4O   1    0G   298.150  3000.0    1000.0      1
 0.54887641E+01 0.12046190E-01-0.43336931E-05 0.70028311E-09-0.41949088E-13    2
-0.91804251E+04-0.70799605E+01 0.37590532E+01-0.94412180E-02 0.80309721E-04    3
-0.10080788E-06 0.40039921E-10-0.75608143E+04 0.78497475E+01-0.63304657E+04    4
CH3CO             T 9/92C   2H   3O   1    0G   200.000  6000.0    1000.0      1
 0.59447731E+01 0.78667205E-02-0.28865882E-05 0.47270875E-09-0.28599861E-13    2
-0.37873075E+04-0.50136751E+01 0.41634257E+01-0.23261610E-03 0.34267820E-04    3
-0.44105227E-07 0.17275612E-10-0.26574529E+04 0.73468280E+01-0.12027167E+04    4
CH3CHO            L 8/88C   2H   4O   1    0G   200.000  6000.0    1000.0      1
 0.54041108E+01 0.11723059E-01-0.42263137E-05 0.68372451E-09-0.40984863E-13    2
-0.22593122E+05-0.34807917E+01 0.47294595E+01-0.31932858E-02 0.47534921E-04    3
-0.57458611E-07 0.21931112E-10-0.21572878E+05 0.41030159E+01-0.19987949E+05    4
HCCO              SRIC91H   1C   2O   1     G  0300.00   4000.00  1000.00      1
 0.56282058E+01 0.40853401E-02-0.15934547E-05 0.28626052E-09-0.19407832E-13    2
 0.19327215E+05-0.39302595E+01 0.22517214E+01 0.17655021E-01-0.23729101E-04    3
 0.17275759E-07-0.50664811E-11 0.20059449E+05 0.12490417E+02                   4
HCCOH              SRI91C   2O   1H   20   0G   300.000  5000.000   1000.G     1
 0.59238291E+01 0.67923600E-02-0.25658564E-05 0.44987841E-09-0.29940101E-13    2
 0.72646260E+04-0.76017742E+01 0.12423733E+01 0.31072201E-01-0.50866864E-04    3
 0.43137131E-07-0.14014594E-10 0.80316143E+04 0.13874319E+02                   4
C2O               RUS 79C   2O   1    0    0G   200.000  6000.000              1
 0.51512722E+01 0.23726722E-02-0.76135971E-06 0.11706415E-09-0.70257804E-14    2
 0.33241888E+05-0.22183135E+01 0.28648610E+01 0.11990216E-01-0.18362448E-04    3
 0.15769739E-07-0.53897452E-11 0.33749932E+05 0.88867772E+01 0.35003406E+05    4
C3H2              T12/00C   3H   2    0    0G   200.000  6000.000              1
 0.73481207E+01 0.44476404E-02-0.12610332E-05 0.78131814E-10 0.13216298E-13    2
 0.62551656E+05-0.91040211E+01 0.45094776E+01 0.17438605E-01-0.24516321E-04    3
 0.18993967E-07-0.57996520E-11 0.63080191E+05 0.42892461E+01                   4
C3H2-2            S 4/01C   3H   2    0    0G   200.000  3000.000              1
 7.47247827E+00 4.57765160E-03-1.56482125E-06 2.43991965E-10-1.42462924E-14    2
 8.83321441E+04-1.27113314E+01 3.74356467E+00 2.51955211E-02-4.62608277E-05    3
 4.34360520E-08-1.53992558E-11 8.89297787E+04 4.22612394E+00 9.08356403E+04    4
cC3H2             121686C   3H   2          G  0300.00   5000.00  1000.00      1
 0.06530853E+02 0.05870316E-01-0.01720777E-04 0.02127498E-08-0.08291910E-13    2
 0.05115214E+06-0.01122728E+03 0.02691077E+02 0.01480366E+00-0.03250551E-04    3
-0.08644363E-07 0.05284878E-10 0.05219072E+06 0.08757391E+02                   4

C3H3               82489C   3H   3          G  0300.00   4000.00  1000.00      1
 0.08831047e+02 0.04357195e-01-0.04109067e-05-0.02368723e-08 0.04376520e-12    2
 0.03847420e+06-0.02177919e+03 0.04754200e+02 0.01108028e+00 0.02793323e-05    3
-0.05479212e-07 0.01949629e-10 0.03988883e+06 0.05854549e+01                   4

!C3H3              T 5/97C   3H   3    0    0G   200.000  6000.000              1
! 7.14221880E+00 7.61902005E-03-2.67459950E-06 4.24914801E-10-2.51475415E-14    2
! 3.89087427E+04-1.25848436E+01 1.35110927E+00 3.27411223E-02-4.73827135E-05    3
! 3.76309808E-08-1.18540923E-11 4.01057783E+04 1.52058924E+01 4.16139977E+04    4
aC3H4             L 8/89C   3H   4    0    0G   200.000  6000.000              1
 0.63168722E+01 0.11133728E-01-0.39629378E-05 0.63564238E-09-0.37875540E-13    2
 0.20117495E+05-0.10995766E+02 0.26130445E+01 0.12122575E-01 0.18539880E-04    3
-0.34525149E-07 0.15335079E-10 0.21541567E+05 0.10226139E+02 0.22962267E+05    4
pC3H4             T 2/90H   4C   3    0    0G   200.000  6000.000              1
 0.60252400E+01 0.11336542E-01-0.40223391E-05 0.64376063E-09-0.38299635E-13    2
 0.19620942E+05-0.86043785E+01 0.26803869E+01 0.15799651E-01 0.25070596E-05    3
-0.13657623E-07 0.66154285E-11 0.20802374E+05 0.98769351E+01 0.22302059E+05    4
cC3H4             T12/81C   3H   4    0    0G   300.000  5000.000              1
 0.66999931E+01 0.10357372E-01-0.34551167E-05 0.50652949E-09-0.26682276E-13    2
 0.30199051E+05-0.13378770E+02-0.24621047E-01 0.23197215E-01-0.18474357E-05    3
-0.15927593E-07 0.86846155E-11 0.32334137E+05 0.22729762E+02 0.3332728 E+05    4
C3H8              P11/94C   3H   8    0    0G   300.000  3000.000              1
 0.75244152E+01 0.18898282E-01-0.62921041E-05 0.92161457E-09-0.48684478E-13    2
-0.16564394E+05-0.17838375E+02 0.92851093E+00 0.26460566E-01 0.60332446E-05    3
-0.21914953E-07 0.94961544E-11-0.14057907E+05 0.19225538E+02                   4
nC3H7             P11/94C   3H   7    0    0G   300.000  3000.000              1
 0.77097479E+01 0.16031485E-01-0.52720238E-05 0.75888352E-09-0.38862719E-13    2
 0.79762236E+04-0.15515297E+02 0.10491173E+01 0.26008973E-01 0.23542516E-05    3
-0.19595132E-07 0.93720207E-11 0.10312346E+05 0.21136034E+02                   4
iC3H7             P11/94C   3H   7    0    0G   300.000  3000.000              1
 0.65192741E+01 0.17220104E-01-0.57364217E-05 0.84130732E-09-0.44565913E-13    2
 0.73227193E+04-0.90830215E+01 0.14449199E+01 0.20999112E-01 0.77036222E-05    3
-0.18476253E-07 0.71282962E-11 0.94223724E+04 0.20116317E+02                   4
C3H6              120186C   3H   6          G  0300.00   5000.00  1000.00      1
 0.06732257E+02 0.01490834E+00-0.04949899E-04 0.07212022E-08-0.03766204E-12    2
-0.09235703E+04-0.01331335E+03 0.01493307E+02 0.02092518E+00 0.04486794E-04    3
-0.01668912E-06 0.07158146E-10 0.01074826E+05 0.01614534E+03                   4
CH2CHCO           T05/99C   3H   3O   1    0G   200.000  6000.0    1000.0      1
 6.95842227E+00 1.07193211E-02-3.85218494E-06 6.22009064E-10-3.72401640E-14    2
 5.64826498E+03-1.14745786E+01 3.21169467E+00 1.18422105E-02 1.67462582E-05    3
-3.06947176E-08 1.33048816E-11 7.12815750E+03 1.00881663E+01 8.70564832E+03    4
CH2CHCO           USC/07C   3H   3O   1    0G   300.000  5000.000              1
 0.73338666E+01 0.11401899E-01-0.45696443E-05 0.79430967E-09-0.44163078E-13    2
 0.83094941E+04-0.11019943E+02 0.23135836E+01 0.28253129E-01-0.25737754E-04    3
 0.12222654E-07-0.21353429E-11 0.95213496E+04 0.14105129E+02                   4
CH3CHOCH2         T 6/92C   3H   6O   1    0G   298.150  3000.0    1000.0      1
 0.86900558E 01 0.16020987E-01-0.53971753E-05 0.79941542E-09-0.42656366E-13    2
-0.15420691E 05-0.22485016E 02 0.48733836E 00 0.28519690E-01 0.30096162E-05    3
-0.22652642E-07 0.10706728E-10-0.12556434E 05 0.22605270E 02-0.11156446E 05    4
CH3CH2CHO         USC/07C   3H   6O   1    0G   300.000  5000.000              1
 0.62637410E+01 0.19976260E-01-0.76195147E-05 0.11687118E-08-0.41959993E-13    2
-0.25885953E+05-0.57786498E+01 0.27255676E+01 0.23236005E-01 0.29740656E-05    3
-0.16613415E-07 0.74250103E-11-0.24556711E+05 0.14166277E+02                   4
CH3COCH3          T 5/92C   3H   6O   1    0G   200.000  6000.000  1000.0      1
 0.72975991E+01 0.17566207E-01-0.63170456E-05 0.10203086E-08-0.61094016E-13    2
-0.29817680E+05-0.12756981E+02 0.55557943E+01-0.28365428E-02 0.70568945E-04    3
-0.87810488E-07 0.34028266E-10-0.28113337E+05 0.23226600E+01-0.26116945E+05    4
C2H3CHO           USC/07C   3H   4O   1    0G   300.000  5000.000              1
 0.58111868E+01 0.17114256E-01-0.74834161E-05 0.14252249E-08-0.91746841E-13    2
-0.10784054E+05-0.48588004E+01 0.12713498E+01 0.26231054E-01-0.92912305E-05    3
-0.47837272E-08 0.33480543E-11-0.93357344E+04 0.19498077E+02                   4
aC3H5             PD5/98C   3H   5    0    0G   300.000  3000.000              1
 0.65007877E+01 0.14324731E-01-0.56781632E-05 0.11080801E-08-0.90363887E-13    2
 0.17482449E+05-0.11243050E+02 0.13631835E+01 0.19813821E-01 0.12497060E-04    3
-0.33355555E-07 0.15846571E-10 0.19245629E+05 0.17173214E+02                   4
CH3CCH2           PD5/98C   3H   5    0    0G   300.000  3000.000              1
 0.54255528E+01 0.15511072E-01-0.56678350E-05 0.79224388E-09-0.16878034E-13    2
 0.27843027E+05-0.33527184E+01 0.17329209E+01 0.22394620E-01-0.51490611E-05    3
-0.67596466E-08 0.38253211E-11 0.29040498E+05 0.16568878E+02                   4
CH3CHCH           PD5/98C   3H   5    0    0G   300.000  3000.000              1
 0.53725281E+01 0.15780509E-01-0.59922850E-05 0.93089664E-09-0.36550966E-13    2
 0.29614760E+05-0.34186478E+01 0.91372931E+00 0.26432343E-01-0.11758950E-04    3
-0.23035678E-08 0.27715488E-11 0.30916867E+05 0.19989269E+02                   4
C4H               P 1/93C   4H   1    0    0G   300.000  3000.000              1
 0.77697593E+01 0.49829976E-02-0.17628546E-05 0.28144284E-09-0.16689869E-13    2
 0.94345900E+05-0.14165274E+02 0.13186295E+01 0.38582956E-01-0.71385623E-04    3
 0.65356359E-07-0.22617666E-10 0.95456106E+05 0.15567583E+02                   4
C4H2              D11/99C   4H   2    0    0G   300.000  3000.000              1